CRYSTAL
PRIMVEC 1
      12.2950000000      0.0000000000       0.0000000000
       0.0000000000      3.1610000000       0.0000000000
       0.0000000000     -1.5805000000       2.7375063014
PRIMCOORD 1
6 1
42        3.0737500000       0.0000000000       1.8250042009
42        9.2212500000       1.5805000000       0.9125021005
16        7.7151125000       0.0000000000       1.8250042009
16        1.5676125000       1.5805000000       0.9125021005
16       10.7273875000       0.0000000000       1.8250042009
16        4.5798875000       1.5805000000       0.9125021005
