CRYSTAL
PRIMVEC 1
      2.4640000000       0.0000000000       0.0000000000
     -1.2320000000       2.1338865949       0.0000000000
      0.0000000000       0.0000000000       6.7110000000
PRIMCOORD 1
4 1
6       0.0000000000       1.4225910633       1.6777500000
6       1.2320000000       0.7112955316       5.0332500000
6       0.0000000000       0.0000000000       1.6777500000
6       0.0000000000       0.0000000000       5.0332500000
