CRYSTAL
PRIMVEC 1
      1.6566500000      -5.2365000000       0.0000000000
      1.6566500000       5.2365000000       0.0000000000
      0.0000000000       0.0000000000       4.3740000000
PRIMCOORD 1
4 1
15       1.6566500000       4.1535918000       1.8344556000
15       1.6566500000       1.0829082000       4.0214556000
15       1.6566500000      -1.0829082000       0.3525444000
15       1.6566500000      -4.1535918000       2.5395444000
