CRYSTAL
PRIMVEC
 3.08000000000000 0.00000000000000 0.00000000000000
 -1.54000000000000 2.66735824365607 0.00000000000000
 0.00000000000000 0.00000000000000 4.19000000000000
PRIMCOORD
 3 1
 78     0.00000000000000     0.00000000000000     0.00000000000000
  8     1.53984600000000     0.88903050261057     2.76540000000000
  8     0.00015400000000     1.77832774104550     1.42460000000000
