CRYSTAL
PRIMVEC
 3.10000000000000 0.00000000000000 0.00000000000000
 -1.55000000000000 2.68467875173176 0.00000000000000
 0.00000000000000 0.00000000000000 8.32000000000000
PRIMCOORD
 6 1
 78     1.55000000000000     0.89507189582737     4.16000000000000
 78     0.00000000000000     1.78960685590439     0.00000000000000
  8     1.55000000000000     0.89507189582737     7.28000000000000
  8     0.00000000000000     1.78960685590439     3.12000000000000
  8     0.00000000000000     0.00000000000000     1.04000000000000
  8     0.00000000000000     0.00000000000000     5.20000000000000
