CRYSTAL
PRIMVEC 1
      3.4979515641       0.0000000000       0.0000000000
      0.0000000000       6.2709460477       0.0000064513
      0.0000000000       0.0000141202      13.8698925141
PRIMCOORD 1
12 1
52       0.0000000000       4.0365692556       9.1482082152
52       1.7489757821       2.2344012033       2.2132610537
52       0.0000000000       1.2436802864      11.8622959755
52       1.7489757821       5.0272824710       4.9273474691
52       1.7489757821       0.9241458907       8.4845230535
52       0.0000000000       5.3468019483       1.5495882032
52       1.7489757821       4.4192339707      12.5224813354
52       0.0000000000       1.8517410893       5.5875311666
74       0.0000000000       2.8522380411       0.2135373456
74       1.7489757821       3.4187054733       7.1484907993
74       1.7489757821       0.6416377342      -0.0082993905
74       0.0000000000       5.6293107717       6.9266345508
