CRYSTAL
PRIMVEC 1
      3.7122218028       0.0000000000       0.0000000000
      0.0000000000       3.7122218028       0.0000000000
      0.0000000000       0.0000000000      10.4929119410
PRIMCOORD 1
6 1
30       0.0000000000       0.0000000000       5.2464559705
30       1.8561109014       1.8561109014       0.0000000000
17       1.8561109014       0.0000000000       6.6261268214
17       0.0000000000       1.8561109014       9.1132410901
17       0.0000000000       1.8561109014       3.8667851196
17       1.8561109014       0.0000000000       1.3796708509
