CRYSTAL
PRIMVEC 1
      2.5100000000       0.0000000000       0.0000000000
     -1.2550000000       2.1737237635       0.0000000000
      0.0000000000       0.0000000000       6.6900000000
PRIMCOORD 1
4 1
5       0.0000000000       0.0000000000       0.0000000000
5       1.2550000000       0.7245745878       3.3450000000
7       0.0000000000       1.4491491757       3.3450000000
7       1.2550000000       0.7245745878       0.0000000000
