CRYSTAL
PRIMVEC
  4.24260000000000 0.00000000000000  0.00000000000000
 -2.12130000000000 3.67419937809586  0.00000000000000
  0.00000000000000 0.00000000000000 12.39700000000000
PRIMCOORD
 6 1
 83     0.00000000000000     2.44922130543870     1.72814180000000
 83     2.12130000000000     1.22497807265716     7.92664180000000
 52     0.00000000000000     2.44922130543870     6.16998690000000
 52     2.12130000000000     1.22497807265716     3.48479670000000
 17     0.00000000000000     0.00000000000000    -0.02975280000000
 17     0.00000000000000     0.00000000000000     9.68453640000000
