CRYSTAL
PRIMVEC 1
      2.5400000000       0.0000000000       0.0000000000
     -1.2700000000       2.1997045256       0.0000000000
      0.0000000000       0.0000000000       6.5980000000
PRIMCOORD 1
4 1
5       1.2700000000       0.7332348419       1.9495000000
5       0.0000000000       1.4664696837       4.6485000000
7       1.2700000000       0.7332348419       4.6485000000
7       0.0000000000       1.4664696837       1.9495000000
