CRYSTAL
PRIMVEC 1
      3.0000000000       0.0000000000       0.0000000000
      0.0000000000       3.0000000000       0.0000000000
      0.0000000000       0.0000000000       16.0000000000
PRIMCOORD 1
20 1
6       0.0000000000       0.0000000000       0.0000000000
6       1.5000000000       0.0000000000       0.0000000000
6       0.0000000000       1.5000000000       0.0000000000
6       1.5000000000       1.5000000000       0.0000000000
1       0.0000000000       0.0000000000       1.0000000000
6       0.0000000000       0.0000000000       4.0000000000
6       1.5000000000       0.0000000000       4.0000000000
6       0.0000000000       1.5000000000       4.0000000000
6       1.5000000000       1.5000000000       4.0000000000
1       0.0000000000       1.5000000000       5.0000000000
6       0.0000000000       0.0000000000       8.0000000000
6       1.5000000000       0.0000000000       8.0000000000
6       0.0000000000       1.5000000000       8.0000000000
6       1.5000000000       1.5000000000       8.0000000000
1       1.5000000000       1.5000000000       9.0000000000
6       0.0000000000       0.0000000000      12.0000000000
6       1.5000000000       0.0000000000      12.0000000000
6       0.0000000000       1.5000000000      12.0000000000
6       1.5000000000       1.5000000000      12.0000000000
1       1.5000000000       0.0000000000      13.0000000000
